139
2
P 300 1313 1500
SS
#1
0 0
1 1
#2
1 1
1 1
#3
0 0
0 0
#4
0 0
0 0
#5
0 0
0 0
#6
0 0
0 0
#7
0 0
0 0
#8
0 0
0 0
#9
0 0
1 1
#10
0 0
1 1
#11
0 0
0 0
#12
0 0
1 1
#13
0 0
0 0
#14
0 0
0 0
#15
0 0
1 1
#16
1 1
1 1
#17
0 0
1 1
#18
0 0
1 1
#19
0 0
0 0
#20
0 0
1 1
#21
0 0
1 1
#22
0 0
1 1
#23
1 0
1 1
#24
0 0
1 0
#25
0 0
1 1
#26
0 0
0 0
#27
0 0
1 1
#28
0 0
1 1
#29
0 0
0 0
#30
0 0
0 0
#31
1 0
1 1
#32
0 0
0 0
#33
0 0
0 0
#34
0 0
1 1
#35
0 0
1 1
#36
0 0
0 0
#37
0 0
0 0
#38
1 1
1 1
#39
0 0
1 1
#40
0 0
0 0
#41
0 0
1 1
#42
0 0
1 1
#43
0 0
1 0
#44
0 0
0 0
#45
0 0
0 0
#46
0 0
0 0
#47
0 0
1 1
#48
0 0
0 0
#49
0 1
1 1
#50
0 0
1 1
#51
0 0
0 0
#52
0 0
0 0
#53
0 0
0 0
#54
0 0
0 0
#55
0 0
0 0
#56
1 1
1 1
#57
0 0
1 1
#58
0 0
0 0
#59
1 1
1 1
#60
0 0
1 0
#61
0 0
1 1
#62
0 0
0 0
#63
0 0
0 0
#64
0 0
1 1
#65
0 0
1 1
#66
0 0
1 0
#67
0 0
0 0
#68
1 0
1 1
#69
1 1
1 1
#70
0 0
0 0
#71
0 0
1 1
#72
1 1
1 1
#73
0 0
1 0
#74
0 0
0 0
#75
1 1
1 1
#76
0 0
0 0
#77
0 0
0 0
#78
1 1
1 1
#79
1 1
1 1
#80
0 0
1 1
#81
0 0
1 1
#82
1 1
1 1
#83
0 0
1 1
#84
0 0
1 1
#85
0 0
1 0
#86
0 0
0 0
#87
0 0
1 1
#88
0 0
1 1
#89
0 0
1 1
#90
0 0
1 1
#91
0 0
0 0
#92
0 0
1 1
#93
0 0
1 1
#94
0 0
0 0
#95
1 1
1 1
#96
0 0
1 1
#97
0 0
1 1
#98
0 0
0 0
#99
0 0
0 0
#100
0 0
0 0
#101
0 0
1 0
#102
0 0
0 0
#103
0 0
1 1
#104
0 0
0 0
#105
0 0
1 1
#106
0 0
1 1
#107
1 1
1 1
#108
0 0
0 0
#109
0 0
0 0
#110
0 0
1 1
#111
0 0
1 0
#112
0 0
0 0
#113
0 0
0 0
#114
0 0
0 0
#115
1 1
1 1
#116
0 0
1 0
#117
0 0
1 1
#118
0 0
0 0
#119
0 0
1 1
#120
0 0
0 0
#121
0 0
0 0
#122
1 1
1 1
#123
1 1
1 1
#124
0 0
0 0
#125
0 0
1 1
#126
0 0
1 0
#127
0 0
1 1
#128
0 0
0 0
#129
0 0
0 0
#130
0 0
0 0
#131
1 0
1 1
#132
0 0
1 1
#133
0 0
0 0
#134
1 1
1 1
#135
0 0
1 1
#136
0 0
1 1
#137
0 0
1 1
#138
0 0
0 0
#139
0 0
0 0
